modelo_opendss/transformador_MT.dss
new transformer.UNTRMT_5289212 phases=3 windings=2 %r=1.55 xhl=3.14 kva=75.0
~ wdg=1 bus=82300145002211.1.2.3 conn=delta kv=13.8
~ wdg=2 bus=82300145289212.1.2.3.0 conn=wye kv=0.38
new transformer.UNTRMT_5289213 phases=3 windings=2 %r=1.46 xhl=3.18 kva=112.0
~ wdg=1 bus=82300295002211.1.2.3 conn=delta kv=13.8
~ wdg=2 bus=82300295289213.1.2.3.0 conn=wye kv=0.38
new transformer.UNTRMT_5289230 phases=3 windings=2 %r=1.68 xhl=3.07 kva=45.0
~ wdg=1 bus=88876135002211.1.2.3 conn=delta kv=13.8
~ wdg=2 bus=88876135289230.1.2.3.0 conn=wye kv=0.38
new transformer.UNTRMT_5289232 phases=3 windings=2 %r=1.68 xhl=3.07 kva=45.0
~ wdg=1 bus=82284535002211.1.2.3 conn=delta kv=13.8
~ wdg=2 bus=82284535289232.1.2.3.0 conn=wye kv=0.38
new transformer.UNTRMT_5289233 phases=3 windings=2 %r=1.68 xhl=3.07 kva=45.0
~ wdg=1 bus=82284645002211.1.2.3 conn=delta kv=13.8
~ wdg=2 bus=82284645289233.1.2.3.0 conn=wye kv=0.38
new transformer.UNTRMT_5450816 phases=3 windings=2 %r=1.46 xhl=3.18 kva=112.0
~ wdg=1 bus=87157485002211.1.2.3 conn=delta kv=13.8
~ wdg=2 bus=87157485450816.1.2.3.0 conn=wye kv=0.38
new transformer.UNTRMT_5487014 phases=3 windings=2 %r=1.46 xhl=3.18 kva=112.0
~ wdg=1 bus=88160985002211.1.2.3 conn=delta kv=13.8
~ wdg=2 bus=88160985487014.1.2.3.0 conn=wye kv=0.38
new transformer.UNTRMT_5518557 phases=3 windings=2 %r=1.46 xhl=3.18 kva=112.0
~ wdg=1 bus=89137445002211.1.2.3 conn=delta kv=13.8
~ wdg=2 bus=89137445518557.1.2.3.0 conn=wye kv=0.38
new transformer.UNTRMT_5595823 phases=3 windings=2 %r=1.55 xhl=3.14 kva=75.0
~ wdg=1 bus=91606105002211.1.2.3 conn=delta kv=13.8
~ wdg=2 bus=91606105595823.1.2.3.0 conn=wye kv=0.38
new transformer.UNTRMT_5641426 phases=3 windings=2 %r=1.55 xhl=3.14 kva=112.0
~ wdg=1 bus=92891685001993.1.2.3 conn=delta kv=13.8
~ wdg=2 bus=92891685641426.1.2.3.0 conn=wye kv=0.38
new transformer.UNTRMT_5695404 phases=3 windings=2 %r=1.46 xhl=3.18 kva=112.0
~ wdg=1 bus=94452775007257.1.2.3 conn=delta kv=13.8
~ wdg=2 bus=94452775695404.1.2.3.0 conn=wye kv=0.38
new transformer.UNTRMT_5807639 phases=3 windings=2 %r=1.39 xhl=3.21 kva=75.0
~ wdg=1 bus=99218515007259.1.2.3 conn=delta kv=13.8
~ wdg=2 bus=99218515807639.1.2.3.0 conn=wye kv=0.38
new transformer.UNTRMT_5807642 phases=3 windings=2 %r=1.39 xhl=3.21 kva=75.0
~ wdg=1 bus=99218625007259.1.2.3 conn=delta kv=13.8
~ wdg=2 bus=99218625807642.1.2.3.0 conn=wye kv=0.38
new transformer.UNTRMT_5807643 phases=3 windings=2 %r=1.39 xhl=3.21 kva=75.0
~ wdg=1 bus=99218395007259.1.2.3 conn=delta kv=13.8
~ wdg=2 bus=99218395807643.1.2.3.0 conn=wye kv=0.38
new transformer.UNTRMT_5807644 phases=3 windings=2 %r=1.39 xhl=3.21 kva=75.0
~ wdg=1 bus=99218775007259.1.2.3 conn=delta kv=13.8
~ wdg=2 bus=99218775807644.1.2.3.0 conn=wye kv=0.38
new transformer.UNTRMT_5807645 phases=3 windings=2 %r=1.3 xhl=4.31 kva=75.0
~ wdg=1 bus=99218735007259.1.2.3 conn=delta kv=13.8
~ wdg=2 bus=99218735807645.1.2.3.0 conn=wye kv=0.38
new transformer.UNTRMT_5807647 phases=3 windings=2 %r=1.39 xhl=3.21 kva=75.0
~ wdg=1 bus=99218655007259.1.2.3 conn=delta kv=13.8
~ wdg=2 bus=99218655807647.1.2.3.0 conn=wye kv=0.38
new transformer.UNTRMT_5807648 phases=3 windings=2 %r=1.68 xhl=3.07 kva=75.0
~ wdg=1 bus=99218565007259.1.2.3 conn=delta kv=13.8
~ wdg=2 bus=99218565807648.1.2.3.0 conn=wye kv=0.38
new transformer.UNTRMT_5807906 phases=3 windings=2 %r=1.68 xhl=3.07 kva=75.0
~ wdg=1 bus=99224085007259.1.2.3 conn=delta kv=13.8
~ wdg=2 bus=99224085807906.1.2.3.0 conn=wye kv=0.38
new transformer.UNTRMT_5807907 phases=3 windings=2 %r=1.68 xhl=3.07 kva=75.0
~ wdg=1 bus=99224415007259.1.2.3 conn=delta kv=13.8
~ wdg=2 bus=99224415807907.1.2.3.0 conn=wye kv=0.38
new transformer.UNTRMT_5807908 phases=3 windings=2 %r=1.3 xhl=4.31 kva=75.0
~ wdg=1 bus=99224395007259.1.2.3 conn=delta kv=13.8
~ wdg=2 bus=99224395807908.1.2.3.0 conn=wye kv=0.38
new transformer.UNTRMT_5807909 phases=3 windings=2 %r=1.3 xhl=4.31 kva=75.0
~ wdg=1 bus=99224335007259.1.2.3 conn=delta kv=13.8
~ wdg=2 bus=99224335807909.1.2.3.0 conn=wye kv=0.38
new transformer.UNTRMT_5807910 phases=3 windings=2 %r=1.3 xhl=4.31 kva=75.0
~ wdg=1 bus=99224305007259.1.2.3 conn=delta kv=13.8
~ wdg=2 bus=99224305807910.1.2.3.0 conn=wye kv=0.38
new transformer.UNTRMT_5807912 phases=3 windings=2 %r=1.68 xhl=3.07 kva=45.0
~ wdg=1 bus=99224145007259.1.2.3 conn=delta kv=13.8
~ wdg=2 bus=99224145807912.1.2.3.0 conn=wye kv=0.38
new transformer.UNTRMT_5811059 phases=3 windings=2 %r=1.39 xhl=3.21 kva=150.0
~ wdg=1 bus=80484245001995.1.2.3 conn=delta kv=13.8
~ wdg=2 bus=80484245811059.1.2.3.0 conn=wye kv=0.38
new transformer.UNTRMT_5812316 phases=3 windings=2 %r=1.39 xhl=3.21 kva=75.0
~ wdg=1 bus=80487135001992.1.2.3 conn=delta kv=13.8
~ wdg=2 bus=80487135812316.1.2.3.0 conn=wye kv=0.38
new transformer.UNTRMT_5812540 phases=3 windings=2 %r=1.39 xhl=3.21 kva=150.0
~ wdg=1 bus=99437505001993.1.2.3 conn=delta kv=13.8
~ wdg=2 bus=99437505812540.1.2.3.0 conn=wye kv=0.38
new transformer.UNTRMT_5812968 phases=3 windings=2 %r=1.25 xhl=4.32 kva=300.0
~ wdg=1 bus=99446955002412.1.2.3 conn=delta kv=13.8
~ wdg=2 bus=99446955812968.1.2.3.0 conn=wye kv=0.38
new transformer.UNTRMT_5813510 phases=3 windings=2 %r=1.25 xhl=4.32 kva=300.0
~ wdg=1 bus=99465585007259.1.2.3 conn=delta kv=13.8
~ wdg=2 bus=99465585813510.1.2.3.0 conn=wye kv=0.38
new transformer.UNTRMT_5813540 phases=3 windings=2 %r=1.25 xhl=4.32 kva=300.0
~ wdg=1 bus=99468595007259.1.2.3 conn=delta kv=13.8
~ wdg=2 bus=99468595813540.1.2.3.0 conn=wye kv=0.38
new transformer.UNTRMT_5813604 phases=3 windings=2 %r=1.25 xhl=4.32 kva=300.0
~ wdg=1 bus=99468575007259.1.2.3 conn=delta kv=13.8
~ wdg=2 bus=99468575813604.1.2.3.0 conn=wye kv=0.38
new transformer.UNTRMT_5813658 phases=3 windings=2 %r=1.25 xhl=4.32 kva=300.0
~ wdg=1 bus=99468525007259.1.2.3 conn=delta kv=13.8
~ wdg=2 bus=99468525813658.1.2.3.0 conn=wye kv=0.38
new transformer.UNTRMT_5813675 phases=3 windings=2 %r=1.25 xhl=4.32 kva=300.0
~ wdg=1 bus=99468555007259.1.2.3 conn=delta kv=13.8
~ wdg=2 bus=99468555813675.1.2.3.0 conn=wye kv=0.38
new transformer.UNTRMT_5813711 phases=3 windings=2 %r=1.25 xhl=4.32 kva=300.0
~ wdg=1 bus=99468495007259.1.2.3 conn=delta kv=13.8
~ wdg=2 bus=99468495813711.1.2.3.0 conn=wye kv=0.38
new transformer.UNTRMT_5813730 phases=3 windings=2 %r=1.25 xhl=4.32 kva=300.0
~ wdg=1 bus=99468485007259.1.2.3 conn=delta kv=13.8
~ wdg=2 bus=99468485813730.1.2.3.0 conn=wye kv=0.38
new transformer.UNTRMT_5813881 phases=3 windings=2 %r=1.39 xhl=3.21 kva=150.0
~ wdg=1 bus=99505465002211.1.2.3 conn=delta kv=13.8
~ wdg=2 bus=99505465813881.1.2.3.0 conn=wye kv=0.38
new transformer.UNTRMT_5815182 phases=3 windings=2 %r=1.25 xhl=4.32 kva=300.0
~ wdg=1 bus=99619475002412.1.2.3 conn=delta kv=13.8
~ wdg=2 bus=99619475815182.1.2.3.0 conn=wye kv=0.38
new transformer.UNTRMT_5817240 phases=3 windings=2 %r=1.55 xhl=3.14 kva=75.0
~ wdg=1 bus=99769375007258.1.2.3 conn=delta kv=13.8
~ wdg=2 bus=99769375817240.1.2.3.0 conn=wye kv=0.38
new transformer.UNTRMT_5813635 phases=3 windings=2 %r=1.25 xhl=4.32 kva=300.0
~ wdg=1 bus=99468585007259.1.2.3 conn=delta kv=13.8
~ wdg=2 bus=99468585813635.1.2.3.0 conn=wye kv=0.38
new transformer.UNTRMT_5809858 phases=3 windings=2 %r=1.15 xhl=5.89 kva=500.0
~ wdg=1 bus=99300755001993.1.2.3 conn=delta kv=13.8
~ wdg=2 bus=99300755809858.1.2.3.0 conn=wye kv=0.38
new transformer.UNTRMT_5813748 phases=3 windings=2 %r=1.25 xhl=4.32 kva=300.0
~ wdg=1 bus=99466155007259.1.2.3 conn=delta kv=13.8
~ wdg=2 bus=99466155813748.1.2.3.0 conn=wye kv=0.38
new transformer.UNTRMT_5813767 phases=3 windings=2 %r=1.25 xhl=4.32 kva=300.0
~ wdg=1 bus=99466195007259.1.2.3 conn=delta kv=13.8
~ wdg=2 bus=99466195813767.1.2.3.0 conn=wye kv=0.38
new transformer.UNTRMT_5807646 phases=3 windings=2 %r=1.68 xhl=3.07 kva=75.0
~ wdg=1 bus=99218685007259.1.2.3 conn=delta kv=13.8
~ wdg=2 bus=99218685807646.1.2.3.0 conn=wye kv=0.38
new transformer.UNTRMT_5812646 phases=3 windings=2 %r=1.15 xhl=5.89 kva=75.0
~ wdg=1 bus=99439545001993.1.2.3 conn=delta kv=13.8
~ wdg=2 bus=99439545812646.1.2.3.0 conn=wye kv=0.38
new transformer.UNTRMT_5813277 phases=3 windings=2 %r=1.15 xhl=5.89 kva=75.0
~ wdg=1 bus=99435455002412.1.2.3 conn=delta kv=13.8
~ wdg=2 bus=99435455813277.1.2.3.0 conn=wye kv=0.38
new transformer.UNTRMT_5818075 phases=3 windings=2 %r=1.15 xhl=5.89 kva=500.0
~ wdg=1 bus=99234685002413.1.2.3 conn=delta kv=13.8
~ wdg=2 bus=99234685818075.1.2.3.0 conn=wye kv=0.38
new transformer.UNTRMT_5809254 phases=3 windings=2 %r=0.95 xhl=5.92 kva=1500.0
~ wdg=1 bus=99264655001993.1.2.3 conn=delta kv=13.8
~ wdg=2 bus=99264655809254.1.2.3.0 conn=wye kv=0.38
new transformer.UNTRMT_5807911 phases=3 windings=2 %r=1.68 xhl=3.07 kva=75.0
~ wdg=1 bus=99224295007259.1.2.3 conn=delta kv=13.8
~ wdg=2 bus=99224295807911.1.2.3.0 conn=wye kv=0.38
new transformer.UNTRMT_5253946 phases=1 windings=3 %r=2.08 xhl=1.39 xht=1.39 xlt=0.97 kva=10.0
~ wdg=1 bus=78864635002188.1 conn=wye kv=7.96 kva=10.0 %r=1.04
~ wdg=2 bus=78864635253946.1.0 conn=wye kv=0.22 kva=10.0 %r=1.04
~ wdg=3 bus=78864635253946.0.2 conn=wye kv=0.22 kva=10.0 %r=1.04
new transformer.UNTRMT_5253947 phases=1 windings=3 %r=2.08 xhl=1.39 xht=1.39 xlt=0.97 kva=10.0
~ wdg=1 bus=78864675002188.1 conn=wye kv=7.96 kva=10.0 %r=1.04
~ wdg=2 bus=78864675253947.1.0 conn=wye kv=0.22 kva=10.0 %r=1.04
~ wdg=3 bus=78864675253947.0.2 conn=wye kv=0.22 kva=10.0 %r=1.04
new transformer.UNTRMT_5270543 phases=3 windings=2 %r=1.55 xhl=3.14 kva=75.0
~ wdg=1 bus=80436315001990.1.2.3 conn=delta kv=13.8
~ wdg=2 bus=80436315270543.1.2.3.0 conn=wye kv=0.38
new transformer.UNTRMT_5270547 phases=3 windings=2 %r=1.46 xhl=3.18 kva=127.0
~ wdg=1 bus=80438565001990.1.2.3 conn=delta kv=13.8
~ wdg=2 bus=80438565270547.1.2.3.0 conn=wye kv=0.38
new transformer.UNTRMT_5270547_2 phases=3 windings=2 %r=1.97 xhl=1.55 kva=127.0
~ wdg=1 bus=80438565001990.1.2.3 conn=delta kv=13.79
~ wdg=2 bus=80438565270547_2.1.2.3.0 conn=wye kv=0.44
new transformer.UNTRMT_5270548 phases=1 windings=3 %r=2.08 xhl=1.39 xht=1.39 xlt=0.97 kva=10.0
~ wdg=1 bus=80440265001990.1 conn=wye kv=7.96 kva=10.0 %r=1.04
~ wdg=2 bus=80440265270548.1.0 conn=wye kv=0.22 kva=10.0 %r=1.04
~ wdg=3 bus=80440265270548.0.2 conn=wye kv=0.22 kva=10.0 %r=1.04
new transformer.UNTRMT_5270562 phases=3 windings=2 %r=1.55 xhl=3.14 kva=75.0
~ wdg=1 bus=80433845001990.1.2.3 conn=delta kv=13.8
~ wdg=2 bus=80433845270562.1.2.3.0 conn=wye kv=0.38
new transformer.UNTRMT_5270563 phases=3 windings=2 %r=1.46 xhl=3.18 kva=112.0
~ wdg=1 bus=80434115001990.1.2.3 conn=delta kv=13.8
~ wdg=2 bus=80434115270563.1.2.3.0 conn=wye kv=0.38
new transformer.UNTRMT_5270564 phases=3 windings=2 %r=1.46 xhl=3.18 kva=112.0
~ wdg=1 bus=80434195001990.1.2.3 conn=delta kv=13.8
~ wdg=2 bus=80434195270564.1.2.3.0 conn=wye kv=0.38
new transformer.UNTRMT_5270565 phases=3 windings=2 %r=1.39 xhl=3.21 kva=150.0
~ wdg=1 bus=80434245001990.1.2.3 conn=delta kv=13.8
~ wdg=2 bus=80434245270565.1.2.3.0 conn=wye kv=0.38
new transformer.UNTRMT_5270566 phases=3 windings=2 %r=1.46 xhl=3.18 kva=112.0
~ wdg=1 bus=80434485001990.1.2.3 conn=delta kv=13.8
~ wdg=2 bus=80434485270566.1.2.3.0 conn=wye kv=0.38
new transformer.UNTRMT_5270567 phases=3 windings=2 %r=1.46 xhl=3.18 kva=112.0
~ wdg=1 bus=80435125001990.1.2.3 conn=delta kv=13.8
~ wdg=2 bus=80435125270567.1.2.3.0 conn=wye kv=0.38
new transformer.UNTRMT_5270568 phases=3 windings=2 %r=1.55 xhl=3.14 kva=75.0
~ wdg=1 bus=80435455001990.1.2.3 conn=delta kv=13.8
~ wdg=2 bus=80435455270568.1.2.3.0 conn=wye kv=0.38
new transformer.UNTRMT_5270569 phases=3 windings=2 %r=1.68 xhl=3.07 kva=45.0
~ wdg=1 bus=80435535001990.1.2.3 conn=delta kv=13.8
~ wdg=2 bus=80435535270569.1.2.3.0 conn=wye kv=0.38
new transformer.UNTRMT_5270570 phases=3 windings=2 %r=1.46 xhl=3.18 kva=112.0
~ wdg=1 bus=80435865001990.1.2.3 conn=delta kv=13.8
~ wdg=2 bus=80435865270570.1.2.3.0 conn=wye kv=0.38
new transformer.UNTRMT_5270571 phases=3 windings=2 %r=1.55 xhl=3.14 kva=75.0
~ wdg=1 bus=80438315001990.1.2.3 conn=delta kv=13.8
~ wdg=2 bus=80438315270571.1.2.3.0 conn=wye kv=0.38
new transformer.UNTRMT_5270572 phases=3 windings=2 %r=1.55 xhl=3.14 kva=75.0
~ wdg=1 bus=80439625001990.1.2.3 conn=delta kv=13.8
~ wdg=2 bus=80439625270572.1.2.3.0 conn=wye kv=0.38
new transformer.UNTRMT_5270573 phases=3 windings=2 %r=1.55 xhl=3.14 kva=75.0
~ wdg=1 bus=80436335001990.1.2.3 conn=delta kv=13.8
~ wdg=2 bus=80436335270573.1.2.3.0 conn=wye kv=0.38
new transformer.UNTRMT_5270574 phases=3 windings=2 %r=1.46 xhl=3.18 kva=112.0
~ wdg=1 bus=80436385001990.1.2.3 conn=delta kv=13.8
~ wdg=2 bus=80436385270574.1.2.3.0 conn=wye kv=0.38
new transformer.UNTRMT_5270575 phases=3 windings=2 %r=1.68 xhl=3.07 kva=45.0
~ wdg=1 bus=80436535001990.1.2.3 conn=delta kv=13.8
~ wdg=2 bus=80436535270575.1.2.3.0 conn=wye kv=0.38
new transformer.UNTRMT_5270576 phases=3 windings=2 %r=1.68 xhl=3.07 kva=45.0
~ wdg=1 bus=80436585001990.1.2.3 conn=delta kv=13.8
~ wdg=2 bus=80436585270576.1.2.3.0 conn=wye kv=0.38
new transformer.UNTRMT_5270577 phases=3 windings=2 %r=1.55 xhl=3.14 kva=75.0
~ wdg=1 bus=80436715001990.1.2.3 conn=delta kv=13.8
~ wdg=2 bus=80436715270577.1.2.3.0 conn=wye kv=0.38
new transformer.UNTRMT_5270578 phases=3 windings=2 %r=1.39 xhl=3.21 kva=150.0
~ wdg=1 bus=80436765001990.1.2.3 conn=delta kv=13.8
~ wdg=2 bus=80436765270578.1.2.3.0 conn=wye kv=0.38
new transformer.UNTRMT_5270579 phases=3 windings=2 %r=1.55 xhl=3.14 kva=75.0
~ wdg=1 bus=80437235001990.1.2.3 conn=delta kv=13.8
~ wdg=2 bus=80437235270579.1.2.3.0 conn=wye kv=0.38
new transformer.UNTRMT_5270580 phases=3 windings=2 %r=1.68 xhl=3.07 kva=45.0
~ wdg=1 bus=80437315001990.1.2.3 conn=delta kv=13.8
~ wdg=2 bus=80437315270580.1.2.3.0 conn=wye kv=0.38
new transformer.UNTRMT_5270581 phases=3 windings=2 %r=1.55 xhl=3.14 kva=75.0
~ wdg=1 bus=80437595001990.1.2.3 conn=delta kv=13.8
~ wdg=2 bus=80437595270581.1.2.3.0 conn=wye kv=0.38
new transformer.UNTRMT_5270582 phases=3 windings=2 %r=1.78 xhl=3.01 kva=30.0
~ wdg=1 bus=80437685001990.1.2.3 conn=delta kv=13.8
~ wdg=2 bus=80437685270582.1.2.3.0 conn=wye kv=0.38
new transformer.UNTRMT_5270583 phases=3 windings=2 %r=1.46 xhl=3.18 kva=112.0
~ wdg=1 bus=80439545001990.1.2.3 conn=delta kv=13.8
~ wdg=2 bus=80439545270583.1.2.3.0 conn=wye kv=0.38
new transformer.UNTRMT_5270584 phases=3 windings=2 %r=1.55 xhl=3.14 kva=75.0
~ wdg=1 bus=80439265001990.1.2.3 conn=delta kv=13.8
~ wdg=2 bus=80439265270584.1.2.3.0 conn=wye kv=0.38
new transformer.UNTRMT_5270585 phases=3 windings=2 %r=1.46 xhl=3.18 kva=112.0
~ wdg=1 bus=80439335001990.1.2.3 conn=delta kv=13.8
~ wdg=2 bus=80439335270585.1.2.3.0 conn=wye kv=0.38
new transformer.UNTRMT_5270586 phases=3 windings=2 %r=1.46 xhl=3.18 kva=112.0
~ wdg=1 bus=80437975001990.1.2.3 conn=delta kv=13.8
~ wdg=2 bus=80437975270586.1.2.3.0 conn=wye kv=0.38
new transformer.UNTRMT_5270587 phases=3 windings=2 %r=1.68 xhl=3.07 kva=45.0
~ wdg=1 bus=80440335001990.1.2.3 conn=delta kv=13.8
~ wdg=2 bus=80440335270587.1.2.3.0 conn=wye kv=0.38
new transformer.UNTRMT_5270588 phases=3 windings=2 %r=1.55 xhl=3.14 kva=75.0
~ wdg=1 bus=80436235001990.1.2.3 conn=delta kv=13.8
~ wdg=2 bus=80436235270588.1.2.3.0 conn=wye kv=0.38
new transformer.UNTRMT_5270589 phases=3 windings=2 %r=1.46 xhl=3.18 kva=112.0
~ wdg=1 bus=80436265001990.1.2.3 conn=delta kv=13.8
~ wdg=2 bus=80436265270589.1.2.3.0 conn=wye kv=0.38
new transformer.UNTRMT_5270590 phases=3 windings=2 %r=1.46 xhl=3.18 kva=112.0
~ wdg=1 bus=80436825001990.1.2.3 conn=delta kv=13.8
~ wdg=2 bus=80436825270590.1.2.3.0 conn=wye kv=0.38
new transformer.UNTRMT_5270591 phases=3 windings=2 %r=1.46 xhl=3.18 kva=112.0
~ wdg=1 bus=80437785001990.1.2.3 conn=delta kv=13.8
~ wdg=2 bus=80437785270591.1.2.3.0 conn=wye kv=0.38
new transformer.UNTRMT_5270592 phases=3 windings=2 %r=1.68 xhl=3.07 kva=45.0
~ wdg=1 bus=80437825001990.1.2.3 conn=delta kv=13.8
~ wdg=2 bus=80437825270592.1.2.3.0 conn=wye kv=0.38
new transformer.UNTRMT_5270593 phases=3 windings=2 %r=1.46 xhl=3.18 kva=112.0
~ wdg=1 bus=80437885001990.1.2.3 conn=delta kv=13.8
~ wdg=2 bus=80437885270593.1.2.3.0 conn=wye kv=0.38
new transformer.UNTRMT_5270595 phases=3 windings=2 %r=1.55 xhl=3.14 kva=75.0
~ wdg=1 bus=80438475001990.1.2.3 conn=delta kv=13.8
~ wdg=2 bus=80438475270595.1.2.3.0 conn=wye kv=0.38
new transformer.UNTRMT_5270596 phases=3 windings=2 %r=1.68 xhl=3.07 kva=45.0
~ wdg=1 bus=80438505001990.1.2.3 conn=delta kv=13.8
~ wdg=2 bus=80438505270596.1.2.3.0 conn=wye kv=0.38
new transformer.UNTRMT_5270597 phases=3 windings=2 %r=1.46 xhl=3.18 kva=112.0
~ wdg=1 bus=80438905001990.1.2.3 conn=delta kv=13.8
~ wdg=2 bus=80438905270597.1.2.3.0 conn=wye kv=0.38
new transformer.UNTRMT_5270598 phases=3 windings=2 %r=1.55 xhl=3.14 kva=75.0
~ wdg=1 bus=80438925001990.1.2.3 conn=delta kv=13.8
~ wdg=2 bus=80438925270598.1.2.3.0 conn=wye kv=0.38
new transformer.UNTRMT_5270599 phases=3 windings=2 %r=1.46 xhl=3.18 kva=112.0
~ wdg=1 bus=80440135001990.1.2.3 conn=delta kv=13.8
~ wdg=2 bus=80440135270599.1.2.3.0 conn=wye kv=0.38
new transformer.UNTRMT_5270600 phases=3 windings=2 %r=1.46 xhl=3.18 kva=112.0
~ wdg=1 bus=80435575001990.1.2.3 conn=delta kv=13.8
~ wdg=2 bus=80435575270600.1.2.3.0 conn=wye kv=0.38
new transformer.UNTRMT_5270601 phases=3 windings=2 %r=1.78 xhl=3.01 kva=30.0
~ wdg=1 bus=80440305001990.1.2.3 conn=delta kv=13.8
~ wdg=2 bus=80440305270601.1.2.3.0 conn=wye kv=0.38
new transformer.UNTRMT_5270628 phases=3 windings=2 %r=1.46 xhl=3.18 kva=112.0
~ wdg=1 bus=80445835001991.1.2.3 conn=delta kv=13.8
~ wdg=2 bus=80445835270628.1.2.3.0 conn=wye kv=0.38
new transformer.UNTRMT_5270631 phases=3 windings=2 %r=1.39 xhl=3.21 kva=112.0
~ wdg=1 bus=80446315001991.1.2.3 conn=delta kv=13.8
~ wdg=2 bus=80446315270631.1.2.3.0 conn=wye kv=0.38
new transformer.UNTRMT_5270632 phases=3 windings=2 %r=1.46 xhl=3.18 kva=112.0
~ wdg=1 bus=80446375001991.1.2.3 conn=delta kv=13.8
~ wdg=2 bus=80446375270632.1.2.3.0 conn=wye kv=0.38
new transformer.UNTRMT_5270633 phases=3 windings=2 %r=1.46 xhl=3.18 kva=112.0
~ wdg=1 bus=80445915001991.1.2.3 conn=delta kv=13.8
~ wdg=2 bus=80445915270633.1.2.3.0 conn=wye kv=0.38
new transformer.UNTRMT_5270635 phases=3 windings=2 %r=1.3 xhl=4.31 kva=112.0
~ wdg=1 bus=80446075001991.1.2.3 conn=delta kv=13.8
~ wdg=2 bus=80446075270635.1.2.3.0 conn=wye kv=0.38
new transformer.UNTRMT_5270636 phases=3 windings=2 %r=1.46 xhl=3.18 kva=112.0
~ wdg=1 bus=80446135001991.1.2.3 conn=delta kv=13.8
~ wdg=2 bus=80446135270636.1.2.3.0 conn=wye kv=0.38
new transformer.UNTRMT_5270637 phases=3 windings=2 %r=1.07 xhl=5.9 kva=112.0
~ wdg=1 bus=80446415001991.1.2.3 conn=delta kv=13.8
~ wdg=2 bus=80446415270637.1.2.3.0 conn=wye kv=0.38
new transformer.UNTRMT_5270638 phases=3 windings=2 %r=1.46 xhl=3.18 kva=112.0
~ wdg=1 bus=80446845001991.1.2.3 conn=delta kv=13.8
~ wdg=2 bus=80446845270638.1.2.3.0 conn=wye kv=0.38
new transformer.UNTRMT_5270639 phases=3 windings=2 %r=1.68 xhl=3.07 kva=45.0
~ wdg=1 bus=80446875001991.1.2.3 conn=delta kv=13.8
~ wdg=2 bus=80446875270639.1.2.3.0 conn=wye kv=0.38
new transformer.UNTRMT_5270642 phases=3 windings=2 %r=1.39 xhl=3.21 kva=150.0
~ wdg=1 bus=80446465001991.1.2.3 conn=delta kv=13.8
~ wdg=2 bus=80446465270642.1.2.3.0 conn=wye kv=0.38
new transformer.UNTRMT_5270645 phases=3 windings=2 %r=1.39 xhl=3.21 kva=150.0
~ wdg=1 bus=80444435001991.1.2.3 conn=delta kv=13.8
~ wdg=2 bus=80444435270645.1.2.3.0 conn=wye kv=0.38
new transformer.UNTRMT_5270646 phases=3 windings=2 %r=1.39 xhl=3.21 kva=150.0
~ wdg=1 bus=80444455001991.1.2.3 conn=delta kv=13.8
~ wdg=2 bus=80444455270646.1.2.3.0 conn=wye kv=0.38
new transformer.UNTRMT_5270647 phases=3 windings=2 %r=1.46 xhl=3.18 kva=112.0
~ wdg=1 bus=80444475001991.1.2.3 conn=delta kv=13.8
~ wdg=2 bus=80444475270647.1.2.3.0 conn=wye kv=0.38
new transformer.UNTRMT_5270648 phases=3 windings=2 %r=1.25 xhl=4.32 kva=112.0
~ wdg=1 bus=80444495001991.1.2.3 conn=delta kv=13.8
~ wdg=2 bus=80444495270648.1.2.3.0 conn=wye kv=0.38
new transformer.UNTRMT_5270649 phases=3 windings=2 %r=1.55 xhl=3.14 kva=75.0
~ wdg=1 bus=80447785001991.1.2.3 conn=delta kv=13.8
~ wdg=2 bus=80447785270649.1.2.3.0 conn=wye kv=0.38
new transformer.UNTRMT_5270651 phases=3 windings=2 %r=1.3 xhl=4.31 kva=225.0
~ wdg=1 bus=80445245001991.1.2.3 conn=delta kv=13.8
~ wdg=2 bus=80445245270651.1.2.3.0 conn=wye kv=0.38
new transformer.UNTRMT_5270654 phases=3 windings=2 %r=1.55 xhl=3.14 kva=75.0
~ wdg=1 bus=80447135001991.1.2.3 conn=delta kv=13.8
~ wdg=2 bus=80447135270654.1.2.3.0 conn=wye kv=0.38
new transformer.UNTRMT_5270655 phases=3 windings=2 %r=1.39 xhl=3.21 kva=150.0
~ wdg=1 bus=80447195001991.1.2.3 conn=delta kv=13.8
~ wdg=2 bus=80447195270655.1.2.3.0 conn=wye kv=0.38
new transformer.UNTRMT_5270656 phases=3 windings=2 %r=1.3 xhl=4.31 kva=450.0
~ wdg=1 bus=80447325001991.1.2.3 conn=delta kv=13.8
~ wdg=2 bus=80447325270656.1.2.3.0 conn=wye kv=0.38
new transformer.UNTRMT_5270656_2 phases=3 windings=2 %r=1.3 xhl=4.31 kva=450.0
~ wdg=1 bus=80447325001991.1.2.3 conn=delta kv=13.8
~ wdg=2 bus=80447325270656_2.1.2.3.0 conn=wye kv=0.38
new transformer.UNTRMT_5270662 phases=3 windings=2 %r=1.46 xhl=3.18 kva=112.0
~ wdg=1 bus=80447525001991.1.2.3 conn=delta kv=13.8
~ wdg=2 bus=80447525270662.1.2.3.0 conn=wye kv=0.38
new transformer.UNTRMT_5270664 phases=3 windings=2 %r=1.3 xhl=4.31 kva=225.0
~ wdg=1 bus=80447595001991.1.2.3 conn=delta kv=13.8
~ wdg=2 bus=80447595270664.1.2.3.0 conn=wye kv=0.38
new transformer.UNTRMT_5270666 phases=3 windings=2 %r=1.39 xhl=3.21 kva=112.0
~ wdg=1 bus=80447645001991.1.2.3 conn=delta kv=13.8
~ wdg=2 bus=80447645270666-282.1.2.3.0 conn=wye kv=0.38
new transformer.UNTRMT_5270678 phases=3 windings=2 %r=1.46 xhl=3.18 kva=112.0
~ wdg=1 bus=80445325001991.1.2.3 conn=delta kv=13.8
~ wdg=2 bus=80445325270678.1.2.3.0 conn=wye kv=0.38
new transformer.UNTRMT_5270679 phases=3 windings=2 %r=1.46 xhl=3.18 kva=112.0
~ wdg=1 bus=80445355001991.1.2.3 conn=delta kv=13.8
~ wdg=2 bus=80445355270679.1.2.3.0 conn=wye kv=0.38
new transformer.UNTRMT_5270680 phases=3 windings=2 %r=1.46 xhl=3.18 kva=112.0
~ wdg=1 bus=80445375001991.1.2.3 conn=delta kv=13.8
~ wdg=2 bus=80445375270680.1.2.3.0 conn=wye kv=0.38
new transformer.UNTRMT_5270681 phases=3 windings=2 %r=1.68 xhl=3.07 kva=45.0
~ wdg=1 bus=80447755001991.1.2.3 conn=delta kv=13.8
~ wdg=2 bus=80447755270681.1.2.3.0 conn=wye kv=0.38
new transformer.UNTRMT_5270682 phases=3 windings=2 %r=1.55 xhl=3.14 kva=75.0
~ wdg=1 bus=80446995001991.1.2.3 conn=delta kv=13.8
~ wdg=2 bus=80446995270682.1.2.3.0 conn=wye kv=0.38
new transformer.UNTRMT_5270683 phases=3 windings=2 %r=1.46 xhl=3.18 kva=112.0
~ wdg=1 bus=80447105001991.1.2.3 conn=delta kv=13.8
~ wdg=2 bus=80447105270683.1.2.3.0 conn=wye kv=0.38
new transformer.UNTRMT_5270685 phases=3 windings=2 %r=1.46 xhl=3.18 kva=112.0
~ wdg=1 bus=80447265001991.1.2.3 conn=delta kv=13.8
~ wdg=2 bus=80447265270685.1.2.3.0 conn=wye kv=0.38
new transformer.UNTRMT_5270686 phases=3 windings=2 %r=1.55 xhl=3.14 kva=75.0
~ wdg=1 bus=80447285001991.1.2.3 conn=delta kv=13.8
~ wdg=2 bus=80447285270686.1.2.3.0 conn=wye kv=0.38
new transformer.UNTRMT_5270687 phases=3 windings=2 %r=1.46 xhl=3.18 kva=112.0
~ wdg=1 bus=80447145001991.1.2.3 conn=delta kv=13.8
~ wdg=2 bus=80447145270687.1.2.3.0 conn=wye kv=0.38
new transformer.UNTRMT_5270688 phases=3 windings=2 %r=1.78 xhl=3.01 kva=30.0
~ wdg=1 bus=80447365001991.1.2.3 conn=delta kv=13.8
~ wdg=2 bus=80447365270688.1.2.3.0 conn=wye kv=0.38
new transformer.UNTRMT_5270689 phases=3 windings=2 %r=1.46 xhl=3.18 kva=112.0
~ wdg=1 bus=80447695001991.1.2.3 conn=delta kv=13.8
~ wdg=2 bus=80447695270689.1.2.3.0 conn=wye kv=0.38
new transformer.UNTRMT_5270690 phases=3 windings=2 %r=1.55 xhl=3.14 kva=75.0
~ wdg=1 bus=80446565001991.1.2.3 conn=delta kv=13.8
~ wdg=2 bus=80446565270690.1.2.3.0 conn=wye kv=0.38
new transformer.UNTRMT_5270691 phases=3 windings=2 %r=1.68 xhl=3.07 kva=45.0
~ wdg=1 bus=80444535001991.1.2.3 conn=delta kv=13.8
~ wdg=2 bus=80444535270691.1.2.3.0 conn=wye kv=0.38
new transformer.UNTRMT_5270692 phases=3 windings=2 %r=1.46 xhl=3.18 kva=112.0
~ wdg=1 bus=80444575001991.1.2.3 conn=delta kv=13.8
~ wdg=2 bus=80444575270692.1.2.3.0 conn=wye kv=0.38
new transformer.UNTRMT_5270693 phases=3 windings=2 %r=1.46 xhl=3.18 kva=112.0
~ wdg=1 bus=80444675001991.1.2.3 conn=delta kv=13.8
~ wdg=2 bus=80444675270693.1.2.3.0 conn=wye kv=0.38
new transformer.UNTRMT_5270717 phases=3 windings=2 %r=1.55 xhl=3.14 kva=75.0
~ wdg=1 bus=80442545001991.1.2.3 conn=delta kv=13.8
~ wdg=2 bus=80442545270717.1.2.3.0 conn=wye kv=0.38
new transformer.UNTRMT_5270718 phases=3 windings=2 %r=1.68 xhl=3.07 kva=45.0
~ wdg=1 bus=80442625001991.1.2.3 conn=delta kv=13.8
~ wdg=2 bus=80442625270718.1.2.3.0 conn=wye kv=0.38
new transformer.UNTRMT_5270719 phases=3 windings=2 %r=1.55 xhl=3.14 kva=75.0
~ wdg=1 bus=80440615001991.1.2.3 conn=delta kv=13.8
~ wdg=2 bus=80440615270719.1.2.3.0 conn=wye kv=0.38
new transformer.UNTRMT_5270720 phases=3 windings=2 %r=1.78 xhl=3.01 kva=30.0
~ wdg=1 bus=80440635001991.1.2.3 conn=delta kv=13.8
~ wdg=2 bus=80440635270720.1.2.3.0 conn=wye kv=0.38
new transformer.UNTRMT_5270721 phases=3 windings=2 %r=1.68 xhl=3.07 kva=45.0
~ wdg=1 bus=80440735001991.1.2.3 conn=delta kv=13.8
~ wdg=2 bus=80440735270721.1.2.3.0 conn=wye kv=0.38
new transformer.UNTRMT_5270722 phases=3 windings=2 %r=1.46 xhl=3.18 kva=112.0
~ wdg=1 bus=80443025001991.1.2.3 conn=delta kv=13.8
~ wdg=2 bus=80443025270722.1.2.3.0 conn=wye kv=0.38
new transformer.UNTRMT_5270723 phases=3 windings=2 %r=1.46 xhl=3.18 kva=112.0
~ wdg=1 bus=80443175001991.1.2.3 conn=delta kv=13.8
~ wdg=2 bus=80443175270723.1.2.3.0 conn=wye kv=0.38
new transformer.UNTRMT_5270724 phases=3 windings=2 %r=1.55 xhl=3.14 kva=75.0
~ wdg=1 bus=80443795001991.1.2.3 conn=delta kv=13.8
~ wdg=2 bus=80443795270724.1.2.3.0 conn=wye kv=0.38
new transformer.UNTRMT_5270725 phases=3 windings=2 %r=1.46 xhl=3.18 kva=112.0
~ wdg=1 bus=80443325001991.1.2.3 conn=delta kv=13.8
~ wdg=2 bus=80443325270725.1.2.3.0 conn=wye kv=0.38
new transformer.UNTRMT_5270726 phases=3 windings=2 %r=1.46 xhl=3.18 kva=112.0
~ wdg=1 bus=80443355001991.1.2.3 conn=delta kv=13.8
~ wdg=2 bus=80443355270726.1.2.3.0 conn=wye kv=0.38
new transformer.UNTRMT_5270727 phases=3 windings=2 %r=1.55 xhl=3.14 kva=75.0
~ wdg=1 bus=80443445001991.1.2.3 conn=delta kv=13.8
~ wdg=2 bus=80443445270727.1.2.3.0 conn=wye kv=0.38
new transformer.UNTRMT_5270728 phases=3 windings=2 %r=1.55 xhl=3.14 kva=75.0
~ wdg=1 bus=80443475001991.1.2.3 conn=delta kv=13.8
~ wdg=2 bus=80443475270728.1.2.3.0 conn=wye kv=0.38
new transformer.UNTRMT_5270729 phases=3 windings=2 %r=1.68 xhl=3.07 kva=45.0
~ wdg=1 bus=80440725001991.1.2.3 conn=delta kv=13.8
~ wdg=2 bus=80440725270729.1.2.3.0 conn=wye kv=0.38
new transformer.UNTRMT_5270730 phases=3 windings=2 %r=1.46 xhl=3.18 kva=112.0
~ wdg=1 bus=80440985008500.1.2.3 conn=delta kv=13.8
~ wdg=2 bus=80440985270730.1.2.3.0 conn=wye kv=0.38
new transformer.UNTRMT_5270731 phases=3 windings=2 %r=1.46 xhl=3.18 kva=112.0
~ wdg=1 bus=80441735001991.1.2.3 conn=delta kv=13.8
~ wdg=2 bus=80441735270731.1.2.3.0 conn=wye kv=0.38
new transformer.UNTRMT_5270732 phases=3 windings=2 %r=1.46 xhl=3.18 kva=112.0
~ wdg=1 bus=80444275008500.1.2.3 conn=delta kv=13.8
~ wdg=2 bus=80444275270732.1.2.3.0 conn=wye kv=0.38
new transformer.UNTRMT_5270733 phases=3 windings=2 %r=1.46 xhl=3.18 kva=112.0
~ wdg=1 bus=80441175001991.1.2.3 conn=delta kv=13.8
~ wdg=2 bus=80441175270733.1.2.3.0 conn=wye kv=0.38
new transformer.UNTRMT_5270734 phases=3 windings=2 %r=1.46 xhl=3.18 kva=112.0
~ wdg=1 bus=80441285001991.1.2.3 conn=delta kv=13.8
~ wdg=2 bus=80441285270734.1.2.3.0 conn=wye kv=0.38
new transformer.UNTRMT_5270735 phases=3 windings=2 %r=1.46 xhl=3.18 kva=112.0
~ wdg=1 bus=80441575001991.1.2.3 conn=delta kv=13.8
~ wdg=2 bus=80441575270735.1.2.3.0 conn=wye kv=0.38
new transformer.UNTRMT_5270736 phases=3 windings=2 %r=1.46 xhl=3.18 kva=112.0
~ wdg=1 bus=80442165001991.1.2.3 conn=delta kv=13.8
~ wdg=2 bus=80442165270736.1.2.3.0 conn=wye kv=0.38
new transformer.UNTRMT_5270737 phases=3 windings=2 %r=1.46 xhl=3.18 kva=112.0
~ wdg=1 bus=80442415001991.1.2.3 conn=delta kv=13.8
~ wdg=2 bus=80442415270737.1.2.3.0 conn=wye kv=0.38
new transformer.UNTRMT_5270738 phases=3 windings=2 %r=1.55 xhl=3.14 kva=75.0
~ wdg=1 bus=80441965001991.1.2.3 conn=delta kv=13.8
~ wdg=2 bus=80441965270738.1.2.3.0 conn=wye kv=0.38
new transformer.UNTRMT_5270739 phases=3 windings=2 %r=1.55 xhl=3.14 kva=75.0
~ wdg=1 bus=80441995001991.1.2.3 conn=delta kv=13.8
~ wdg=2 bus=80441995270739.1.2.3.0 conn=wye kv=0.38
new transformer.UNTRMT_5270740 phases=3 windings=2 %r=1.46 xhl=3.18 kva=112.0
~ wdg=1 bus=80442205001991.1.2.3 conn=delta kv=13.8
~ wdg=2 bus=80442205270740.1.2.3.0 conn=wye kv=0.38
new transformer.UNTRMT_5270741 phases=3 windings=2 %r=1.55 xhl=3.14 kva=75.0
~ wdg=1 bus=80447705001991.1.2.3 conn=delta kv=13.8
~ wdg=2 bus=80447705270741.1.2.3.0 conn=wye kv=0.38
new transformer.UNTRMT_5270742 phases=3 windings=2 %r=1.46 xhl=3.18 kva=112.0
~ wdg=1 bus=80445775001991.1.2.3 conn=delta kv=13.8
~ wdg=2 bus=80445775270742.1.2.3.0 conn=wye kv=0.38
new transformer.UNTRMT_5270743 phases=3 windings=2 %r=1.55 xhl=3.14 kva=75.0
~ wdg=1 bus=80445805001991.1.2.3 conn=delta kv=13.8
~ wdg=2 bus=80445805270743.1.2.3.0 conn=wye kv=0.38
new transformer.UNTRMT_5270744 phases=3 windings=2 %r=1.55 xhl=3.14 kva=75.0
~ wdg=1 bus=80446225001991.1.2.3 conn=delta kv=13.8
~ wdg=2 bus=80446225270744.1.2.3.0 conn=wye kv=0.38
new transformer.UNTRMT_5270745 phases=3 windings=2 %r=1.55 xhl=3.14 kva=75.0
~ wdg=1 bus=80445935001991.1.2.3 conn=delta kv=13.8
~ wdg=2 bus=80445935270745.1.2.3.0 conn=wye kv=0.38
new transformer.UNTRMT_5270746 phases=3 windings=2 %r=1.46 xhl=3.18 kva=112.0
~ wdg=1 bus=80445945001991.1.2.3 conn=delta kv=13.8
~ wdg=2 bus=80445945270746.1.2.3.0 conn=wye kv=0.38
new transformer.UNTRMT_5270747 phases=3 windings=2 %r=1.55 xhl=3.14 kva=75.0
~ wdg=1 bus=80446145001991.1.2.3 conn=delta kv=13.8
~ wdg=2 bus=80446145270747.1.2.3.0 conn=wye kv=0.38
new transformer.UNTRMT_5270748 phases=3 windings=2 %r=1.55 xhl=3.14 kva=75.0
~ wdg=1 bus=80446435001991.1.2.3 conn=delta kv=13.8
~ wdg=2 bus=80446435270748.1.2.3.0 conn=wye kv=0.38
new transformer.UNTRMT_5270751 phases=3 windings=2 %r=1.46 xhl=3.18 kva=112.0
~ wdg=1 bus=80446825001991.1.2.3 conn=delta kv=13.8
~ wdg=2 bus=80446825270751.1.2.3.0 conn=wye kv=0.38
new transformer.UNTRMT_5270752 phases=3 windings=2 %r=1.55 xhl=3.14 kva=75.0
~ wdg=1 bus=80446445001991.1.2.3 conn=delta kv=13.8
~ wdg=2 bus=80446445270752.1.2.3.0 conn=wye kv=0.38
new transformer.UNTRMT_5270753 phases=3 windings=2 %r=1.46 xhl=3.18 kva=112.0
~ wdg=1 bus=80446495001991.1.2.3 conn=delta kv=13.8
~ wdg=2 bus=80446495270753.1.2.3.0 conn=wye kv=0.38
new transformer.UNTRMT_5270754 phases=3 windings=2 %r=1.46 xhl=3.18 kva=112.0
~ wdg=1 bus=80446505001991.1.2.3 conn=delta kv=13.8
~ wdg=2 bus=80446505270754.1.2.3.0 conn=wye kv=0.38
new transformer.UNTRMT_5270755 phases=3 windings=2 %r=1.46 xhl=3.18 kva=112.0
~ wdg=1 bus=80444335001991.1.2.3 conn=delta kv=13.8
~ wdg=2 bus=80444335270755.1.2.3.0 conn=wye kv=0.38
new transformer.UNTRMT_5270756 phases=3 windings=2 %r=1.55 xhl=3.14 kva=75.0
~ wdg=1 bus=80446635001991.1.2.3 conn=delta kv=13.8
~ wdg=2 bus=80446635270756.1.2.3.0 conn=wye kv=0.38
new transformer.UNTRMT_5270757 phases=3 windings=2 %r=1.46 xhl=3.18 kva=112.0
~ wdg=1 bus=80446645001991.1.2.3 conn=delta kv=13.8
~ wdg=2 bus=80446645270757.1.2.3.0 conn=wye kv=0.38
new transformer.UNTRMT_5270758 phases=3 windings=2 %r=1.55 xhl=3.14 kva=75.0
~ wdg=1 bus=80446975001991.1.2.3 conn=delta kv=13.8
~ wdg=2 bus=80446975270758.1.2.3.0 conn=wye kv=0.38
new transformer.UNTRMT_5270759 phases=3 windings=2 %r=1.46 xhl=3.18 kva=112.0
~ wdg=1 bus=80446985001991.1.2.3 conn=delta kv=13.8
~ wdg=2 bus=80446985270759.1.2.3.0 conn=wye kv=0.38
new transformer.UNTRMT_5270760 phases=3 windings=2 %r=1.46 xhl=3.18 kva=112.0
~ wdg=1 bus=80446805001991.1.2.3 conn=delta kv=13.8
~ wdg=2 bus=80446805270760.1.2.3.0 conn=wye kv=0.38
new transformer.UNTRMT_5270762 phases=3 windings=2 %r=1.46 xhl=3.18 kva=112.0
~ wdg=1 bus=80445595001991.1.2.3 conn=delta kv=13.8
~ wdg=2 bus=80445595270762.1.2.3.0 conn=wye kv=0.38
new transformer.UNTRMT_5270763 phases=3 windings=2 %r=1.55 xhl=3.14 kva=75.0
~ wdg=1 bus=80445635001991.1.2.3 conn=delta kv=13.8
~ wdg=2 bus=80445635270763.1.2.3.0 conn=wye kv=0.38
new transformer.UNTRMT_5270765 phases=3 windings=2 %r=1.46 xhl=3.18 kva=112.0
~ wdg=1 bus=80444875001991.1.2.3 conn=delta kv=13.8
~ wdg=2 bus=80444875270765.1.2.3.0 conn=wye kv=0.38
new transformer.UNTRMT_5270766 phases=3 windings=2 %r=1.46 xhl=3.18 kva=112.0
~ wdg=1 bus=80445025001991.1.2.3 conn=delta kv=13.8
~ wdg=2 bus=80445025270766.1.2.3.0 conn=wye kv=0.38
new transformer.UNTRMT_5270767 phases=3 windings=2 %r=1.57 xhl=3.13 kva=67.0
~ wdg=1 bus=80445505001991.1.2.3 conn=delta kv=13.8
~ wdg=2 bus=80445505270767.1.2.3.0 conn=wye kv=0.38
new transformer.UNTRMT_5270768 phases=3 windings=2 %r=1.46 xhl=3.18 kva=112.0
~ wdg=1 bus=83590845001991.1.2.3 conn=delta kv=13.8
~ wdg=2 bus=83590845270768.1.2.3.0 conn=wye kv=0.38
new transformer.UNTRMT_5270780 phases=3 windings=2 %r=1.3 xhl=4.31 kva=225.0
~ wdg=1 bus=80449475002412.1.2.3 conn=delta kv=13.8
~ wdg=2 bus=80449475270780.1.2.3.0 conn=wye kv=0.38
new transformer.UNTRMT_5270781 phases=3 windings=2 %r=1.46 xhl=3.18 kva=112.0
~ wdg=1 bus=80449495002412.1.2.3 conn=delta kv=13.8
~ wdg=2 bus=80449495270781.1.2.3.0 conn=wye kv=0.38
new transformer.UNTRMT_5270782 phases=3 windings=2 %r=1.55 xhl=3.14 kva=75.0
~ wdg=1 bus=80448975002412.1.2.3 conn=delta kv=13.8
~ wdg=2 bus=80448975270782.1.2.3.0 conn=wye kv=0.38
new transformer.UNTRMT_5270784 phases=3 windings=2 %r=1.55 xhl=3.14 kva=75.0
~ wdg=1 bus=80449515002412.1.2.3 conn=delta kv=13.8
~ wdg=2 bus=80449515270784.1.2.3.0 conn=wye kv=0.38
new transformer.UNTRMT_5270785 phases=3 windings=2 %r=1.55 xhl=3.14 kva=75.0
~ wdg=1 bus=80450445002412.1.2.3 conn=delta kv=13.8
~ wdg=2 bus=80450445270785.1.2.3.0 conn=wye kv=0.38
new transformer.UNTRMT_5270787 phases=3 windings=2 %r=1.55 xhl=3.14 kva=75.0
~ wdg=1 bus=80450605002412.1.2.3 conn=delta kv=13.8
~ wdg=2 bus=80450605270787.1.2.3.0 conn=wye kv=0.38
new transformer.UNTRMT_5270788 phases=3 windings=2 %r=1.55 xhl=3.14 kva=75.0
~ wdg=1 bus=80450075001992.1.2.3 conn=delta kv=13.8
~ wdg=2 bus=80450075270788.1.2.3.0 conn=wye kv=0.38
new transformer.UNTRMT_5270789 phases=3 windings=2 %r=1.25 xhl=4.32 kva=300.0
~ wdg=1 bus=80458375002412.1.2.3 conn=delta kv=13.8
~ wdg=2 bus=80458375270789.1.2.3.0 conn=wye kv=0.38
new transformer.UNTRMT_5270790 phases=3 windings=2 %r=1.39 xhl=3.21 kva=150.0
~ wdg=1 bus=80457315002412.1.2.3 conn=delta kv=13.8
~ wdg=2 bus=80457315270790.1.2.3.0 conn=wye kv=0.38
new transformer.UNTRMT_5270791 phases=3 windings=2 %r=1.46 xhl=3.18 kva=112.0
~ wdg=1 bus=80457545002412.1.2.3 conn=delta kv=13.8
~ wdg=2 bus=80457545270791.1.2.3.0 conn=wye kv=0.38
new transformer.UNTRMT_5270793 phases=3 windings=2 %r=1.39 xhl=3.21 kva=150.0
~ wdg=1 bus=80457575002412.1.2.3 conn=delta kv=13.8
~ wdg=2 bus=80457575270793.1.2.3.0 conn=wye kv=0.38
new transformer.UNTRMT_5270794 phases=3 windings=2 %r=1.55 xhl=3.14 kva=75.0
~ wdg=1 bus=80457595002412.1.2.3 conn=delta kv=13.8
~ wdg=2 bus=80457595270794.1.2.3.0 conn=wye kv=0.38
new transformer.UNTRMT_5270795 phases=3 windings=2 %r=1.46 xhl=3.18 kva=112.0
~ wdg=1 bus=80457625002412.1.2.3 conn=delta kv=13.8
~ wdg=2 bus=80457625270795.1.2.3.0 conn=wye kv=0.38
new transformer.UNTRMT_5270796 phases=3 windings=2 %r=1.55 xhl=3.14 kva=75.0
~ wdg=1 bus=80457685002412.1.2.3 conn=delta kv=13.8
~ wdg=2 bus=80457685270796.1.2.3.0 conn=wye kv=0.38
new transformer.UNTRMT_5270797 phases=3 windings=2 %r=1.55 xhl=3.14 kva=75.0
~ wdg=1 bus=80457705002412.1.2.3 conn=delta kv=13.8
~ wdg=2 bus=80457705270797.1.2.3.0 conn=wye kv=0.38
new transformer.UNTRMT_5270798 phases=3 windings=2 %r=1.25 xhl=4.32 kva=300.0
~ wdg=1 bus=80457745002412.1.2.3 conn=delta kv=13.8
~ wdg=2 bus=80457745270798.1.2.3.0 conn=wye kv=0.38
new transformer.UNTRMT_5270799 phases=3 windings=2 %r=1.39 xhl=3.21 kva=150.0
~ wdg=1 bus=80457755002412.1.2.3 conn=delta kv=13.8
~ wdg=2 bus=80457755270799.1.2.3.0 conn=wye kv=0.38
new transformer.UNTRMT_5270800 phases=3 windings=2 %r=1.25 xhl=4.32 kva=300.0
~ wdg=1 bus=80458705002412.1.2.3 conn=delta kv=13.8
~ wdg=2 bus=80458705270800.1.2.3.0 conn=wye kv=0.38
new transformer.UNTRMT_5270801 phases=3 windings=2 %r=1.39 xhl=3.21 kva=150.0
~ wdg=1 bus=80452575002412.1.2.3 conn=delta kv=13.8
~ wdg=2 bus=80452575270801.1.2.3.0 conn=wye kv=0.38
new transformer.UNTRMT_5270802 phases=3 windings=2 %r=1.25 xhl=4.32 kva=300.0
~ wdg=1 bus=80458765002412.1.2.3 conn=delta kv=13.8
~ wdg=2 bus=80458765270802.1.2.3.0 conn=wye kv=0.38
new transformer.UNTRMT_5270804 phases=3 windings=2 %r=1.25 xhl=4.32 kva=300.0
~ wdg=1 bus=80451625002412.1.2.3 conn=delta kv=13.8
~ wdg=2 bus=80451625270804.1.2.3.0 conn=wye kv=0.38
new transformer.UNTRMT_5270805 phases=3 windings=2 %r=1.15 xhl=5.89 kva=500.0
~ wdg=1 bus=80451635002412.1.2.3 conn=delta kv=13.8
~ wdg=2 bus=80451635270805.1.2.3.0 conn=wye kv=0.38
new transformer.UNTRMT_5270806 phases=3 windings=2 %r=1.07 xhl=5.9 kva=112.0
~ wdg=1 bus=80452045002412.1.2.3 conn=delta kv=13.8
~ wdg=2 bus=80452045270806.1.2.3.0 conn=wye kv=0.38
new transformer.UNTRMT_5270808 phases=3 windings=2 %r=1.39 xhl=3.21 kva=150.0
~ wdg=1 bus=80453675001992.1.2.3 conn=delta kv=13.8
~ wdg=2 bus=80453675270808.1.2.3.0 conn=wye kv=0.38
new transformer.UNTRMT_5270809 phases=3 windings=2 %r=1.39 xhl=3.21 kva=150.0
~ wdg=1 bus=80453735001992.1.2.3 conn=delta kv=13.8
~ wdg=2 bus=80453735270809.1.2.3.0 conn=wye kv=0.38
new transformer.UNTRMT_5270865 phases=3 windings=2 %r=1.68 xhl=3.07 kva=45.0
~ wdg=1 bus=80449275002412.1.2.3 conn=delta kv=13.8
~ wdg=2 bus=80449275270865.1.2.3.0 conn=wye kv=0.38
new transformer.UNTRMT_5270866 phases=3 windings=2 %r=1.46 xhl=3.18 kva=112.0
~ wdg=1 bus=80449365002412.1.2.3 conn=delta kv=13.8
~ wdg=2 bus=80449365270866.1.2.3.0 conn=wye kv=0.38
new transformer.UNTRMT_5270867 phases=3 windings=2 %r=1.46 xhl=3.18 kva=112.0
~ wdg=1 bus=80449395002412.1.2.3 conn=delta kv=13.8
~ wdg=2 bus=80449395270867.1.2.3.0 conn=wye kv=0.38
new transformer.UNTRMT_5270868 phases=3 windings=2 %r=1.3 xhl=4.31 kva=225.0
~ wdg=1 bus=80449835002412.1.2.3 conn=delta kv=13.8
~ wdg=2 bus=80449835270868.1.2.3.0 conn=wye kv=0.38
new transformer.UNTRMT_5270869 phases=3 windings=2 %r=1.39 xhl=3.21 kva=150.0
~ wdg=1 bus=80448855002412.1.2.3 conn=delta kv=13.8
~ wdg=2 bus=80448855270869.1.2.3.0 conn=wye kv=0.38
new transformer.UNTRMT_5270870 phases=3 windings=2 %r=1.46 xhl=3.18 kva=112.0
~ wdg=1 bus=80448175002412.1.2.3 conn=delta kv=13.8
~ wdg=2 bus=80448175270870.1.2.3.0 conn=wye kv=0.38
new transformer.UNTRMT_5270871 phases=3 windings=2 %r=1.46 xhl=3.18 kva=112.0
~ wdg=1 bus=80448525002412.1.2.3 conn=delta kv=13.8
~ wdg=2 bus=80448525270871.1.2.3.0 conn=wye kv=0.38
new transformer.UNTRMT_5270872 phases=3 windings=2 %r=1.46 xhl=3.18 kva=112.0
~ wdg=1 bus=80449745002412.1.2.3 conn=delta kv=13.8
~ wdg=2 bus=80449745270872.1.2.3.0 conn=wye kv=0.38
new transformer.UNTRMT_5270873 phases=3 windings=2 %r=1.55 xhl=3.14 kva=75.0
~ wdg=1 bus=80449055002412.1.2.3 conn=delta kv=13.8
~ wdg=2 bus=80449055270873.1.2.3.0 conn=wye kv=0.38
new transformer.UNTRMT_5270874 phases=3 windings=2 %r=1.46 xhl=3.18 kva=112.0
~ wdg=1 bus=80450245001992.1.2.3 conn=delta kv=13.8
~ wdg=2 bus=80450245270874.1.2.3.0 conn=wye kv=0.38
new transformer.UNTRMT_5270875 phases=3 windings=2 %r=1.68 xhl=3.07 kva=45.0
~ wdg=1 bus=80450425002412.1.2.3 conn=delta kv=13.8
~ wdg=2 bus=80450425270875.1.2.3.0 conn=wye kv=0.38
new transformer.UNTRMT_5270876 phases=3 windings=2 %r=1.68 xhl=3.07 kva=45.0
~ wdg=1 bus=80450485002412.1.2.3 conn=delta kv=13.8
~ wdg=2 bus=80450485270876.1.2.3.0 conn=wye kv=0.38
new transformer.UNTRMT_5270877 phases=3 windings=2 %r=1.46 xhl=3.18 kva=112.0
~ wdg=1 bus=80450535002412.1.2.3 conn=delta kv=13.8
~ wdg=2 bus=80450535270877.1.2.3.0 conn=wye kv=0.38
new transformer.UNTRMT_5270878 phases=3 windings=2 %r=1.39 xhl=3.21 kva=150.0
~ wdg=1 bus=80450695002412.1.2.3 conn=delta kv=13.8
~ wdg=2 bus=80450695270878.1.2.3.0 conn=wye kv=0.38
new transformer.UNTRMT_5270879 phases=3 windings=2 %r=1.55 xhl=3.14 kva=75.0
~ wdg=1 bus=80450015001992.1.2.3 conn=delta kv=13.8
~ wdg=2 bus=80450015270879.1.2.3.0 conn=wye kv=0.38
new transformer.UNTRMT_5270880 phases=3 windings=2 %r=1.68 xhl=3.07 kva=45.0
~ wdg=1 bus=80450095001992.1.2.3 conn=delta kv=13.8
~ wdg=2 bus=80450095270880.1.2.3.0 conn=wye kv=0.38
new transformer.UNTRMT_5270882 phases=3 windings=2 %r=1.3 xhl=4.31 kva=225.0
~ wdg=1 bus=80458815002412.1.2.3 conn=delta kv=13.8
~ wdg=2 bus=80458815270882.1.2.3.0 conn=wye kv=0.38
new transformer.UNTRMT_5270883 phases=3 windings=2 %r=1.46 xhl=3.18 kva=112.0
~ wdg=1 bus=80458885002412.1.2.3 conn=delta kv=13.8
~ wdg=2 bus=80458885270883.1.2.3.0 conn=wye kv=0.38
new transformer.UNTRMT_5270884 phases=3 windings=2 %r=1.46 xhl=3.18 kva=112.0
~ wdg=1 bus=80458945002412.1.2.3 conn=delta kv=13.8
~ wdg=2 bus=80458945270884.1.2.3.0 conn=wye kv=0.38
new transformer.UNTRMT_5270885 phases=3 windings=2 %r=1.46 xhl=3.18 kva=112.0
~ wdg=1 bus=80457925002412.1.2.3 conn=delta kv=13.8
~ wdg=2 bus=80457925270885.1.2.3.0 conn=wye kv=0.38
new transformer.UNTRMT_5270886 phases=3 windings=2 %r=1.55 xhl=3.14 kva=75.0
~ wdg=1 bus=80457995002412.1.2.3 conn=delta kv=13.8
~ wdg=2 bus=80457995270886.1.2.3.0 conn=wye kv=0.38
new transformer.UNTRMT_5270887 phases=3 windings=2 %r=1.55 xhl=3.14 kva=75.0
~ wdg=1 bus=80458095002412.1.2.3 conn=delta kv=13.8
~ wdg=2 bus=80458095270887.1.2.3.0 conn=wye kv=0.38
new transformer.UNTRMT_5270888 phases=3 windings=2 %r=1.55 xhl=3.14 kva=75.0
~ wdg=1 bus=80458225002412.1.2.3 conn=delta kv=13.8
~ wdg=2 bus=80458225270888.1.2.3.0 conn=wye kv=0.38
new transformer.UNTRMT_5270889 phases=3 windings=2 %r=1.39 xhl=3.21 kva=150.0
~ wdg=1 bus=80457345002412.1.2.3 conn=delta kv=13.8
~ wdg=2 bus=80457345270889.1.2.3.0 conn=wye kv=0.38
new transformer.UNTRMT_5270891 phases=3 windings=2 %r=1.55 xhl=3.14 kva=75.0
~ wdg=1 bus=80457585002412.1.2.3 conn=delta kv=13.8
~ wdg=2 bus=80457585270891.1.2.3.0 conn=wye kv=0.38
new transformer.UNTRMT_5270892 phases=3 windings=2 %r=1.46 xhl=3.18 kva=112.0
~ wdg=1 bus=80457715002412.1.2.3 conn=delta kv=13.8
~ wdg=2 bus=80457715270892.1.2.3.0 conn=wye kv=0.38
new transformer.UNTRMT_5270893 phases=3 windings=2 %r=1.46 xhl=3.18 kva=112.0
~ wdg=1 bus=80457235002412.1.2.3 conn=delta kv=13.8
~ wdg=2 bus=80457235270893.1.2.3.0 conn=wye kv=0.38
new transformer.UNTRMT_5270894 phases=3 windings=2 %r=1.39 xhl=3.21 kva=150.0
~ wdg=1 bus=80458725002412.1.2.3 conn=delta kv=13.8
~ wdg=2 bus=80458725270894.1.2.3.0 conn=wye kv=0.38
new transformer.UNTRMT_5270895 phases=3 windings=2 %r=1.55 xhl=3.14 kva=75.0
~ wdg=1 bus=79663165002412.1.2.3 conn=delta kv=13.8
~ wdg=2 bus=79663165270895.1.2.3.0 conn=wye kv=0.38
new transformer.UNTRMT_5270896 phases=3 windings=2 %r=1.39 xhl=3.21 kva=150.0
~ wdg=1 bus=80452525002412.1.2.3 conn=delta kv=13.8
~ wdg=2 bus=80452525270896.1.2.3.0 conn=wye kv=0.38
new transformer.UNTRMT_5270897 phases=3 windings=2 %r=1.46 xhl=3.18 kva=112.0
~ wdg=1 bus=80459015002412.1.2.3 conn=delta kv=13.8
~ wdg=2 bus=80459015270897.1.2.3.0 conn=wye kv=0.38
new transformer.UNTRMT_5270898 phases=3 windings=2 %r=1.55 xhl=3.14 kva=75.0
~ wdg=1 bus=80459055002412.1.2.3 conn=delta kv=13.8
~ wdg=2 bus=80459055270898.1.2.3.0 conn=wye kv=0.38
new transformer.UNTRMT_5270899 phases=3 windings=2 %r=1.39 xhl=3.21 kva=150.0
~ wdg=1 bus=80459065002412.1.2.3 conn=delta kv=13.8
~ wdg=2 bus=80459065270899.1.2.3.0 conn=wye kv=0.38
new transformer.UNTRMT_5270901 phases=3 windings=2 %r=1.46 xhl=3.18 kva=112.0
~ wdg=1 bus=80451235002412.1.2.3 conn=delta kv=13.8
~ wdg=2 bus=80451235270901.1.2.3.0 conn=wye kv=0.38
new transformer.UNTRMT_5270902 phases=3 windings=2 %r=1.46 xhl=3.18 kva=112.0
~ wdg=1 bus=80451405002412.1.2.3 conn=delta kv=13.8
~ wdg=2 bus=80451405270902.1.2.3.0 conn=wye kv=0.38
new transformer.UNTRMT_5270903 phases=3 windings=2 %r=1.55 xhl=3.14 kva=75.0
~ wdg=1 bus=80451615002412.1.2.3 conn=delta kv=13.8
~ wdg=2 bus=80451615270903.1.2.3.0 conn=wye kv=0.38
new transformer.UNTRMT_5270904 phases=3 windings=2 %r=1.46 xhl=3.18 kva=112.0
~ wdg=1 bus=80451825002412.1.2.3 conn=delta kv=13.8
~ wdg=2 bus=80451825270904.1.2.3.0 conn=wye kv=0.38
new transformer.UNTRMT_5270905 phases=3 windings=2 %r=1.68 xhl=3.07 kva=45.0
~ wdg=1 bus=80451855002412.1.2.3 conn=delta kv=13.8
~ wdg=2 bus=80451855270905.1.2.3.0 conn=wye kv=0.38
new transformer.UNTRMT_5270906 phases=3 windings=2 %r=1.68 xhl=3.07 kva=45.0
~ wdg=1 bus=80451835002412.1.2.3 conn=delta kv=13.8
~ wdg=2 bus=80451835270906.1.2.3.0 conn=wye kv=0.38
new transformer.UNTRMT_5270907 phases=3 windings=2 %r=1.39 xhl=3.21 kva=150.0
~ wdg=1 bus=80451905002412.1.2.3 conn=delta kv=13.8
~ wdg=2 bus=80451905270907.1.2.3.0 conn=wye kv=0.38
new transformer.UNTRMT_5270908 phases=3 windings=2 %r=1.46 xhl=3.18 kva=112.0
~ wdg=1 bus=80452025002412.1.2.3 conn=delta kv=13.8
~ wdg=2 bus=80452025270908.1.2.3.0 conn=wye kv=0.38
new transformer.UNTRMT_5270909 phases=3 windings=2 %r=1.46 xhl=3.18 kva=112.0
~ wdg=1 bus=80452035002412.1.2.3 conn=delta kv=13.8
~ wdg=2 bus=80452035270909.1.2.3.0 conn=wye kv=0.38
new transformer.UNTRMT_5270911 phases=3 windings=2 %r=1.46 xhl=3.18 kva=112.0
~ wdg=1 bus=80454745002412.1.2.3 conn=delta kv=13.8
~ wdg=2 bus=80454745270911.1.2.3.0 conn=wye kv=0.38
new transformer.UNTRMT_5270921 phases=3 windings=2 %r=1.55 xhl=3.14 kva=75.0
~ wdg=1 bus=80459515007257.1.2.3 conn=delta kv=13.8
~ wdg=2 bus=80459515270921.1.2.3.0 conn=wye kv=0.38
new transformer.UNTRMT_5270922 phases=3 windings=2 %r=1.39 xhl=3.21 kva=150.0
~ wdg=1 bus=80459675007257.1.2.3 conn=delta kv=13.8
~ wdg=2 bus=80459675270922.1.2.3.0 conn=wye kv=0.38
new transformer.UNTRMT_5270923 phases=3 windings=2 %r=1.39 xhl=3.21 kva=150.0
~ wdg=1 bus=80462125007257.1.2.3 conn=delta kv=13.8
~ wdg=2 bus=80462125270923.1.2.3.0 conn=wye kv=0.38
new transformer.UNTRMT_5270924 phases=3 windings=2 %r=1.46 xhl=3.18 kva=112.0
~ wdg=1 bus=80463515001993.1.2.3 conn=delta kv=13.8
~ wdg=2 bus=80463515270924.1.2.3.0 conn=wye kv=0.38
new transformer.UNTRMT_5270925 phases=3 windings=2 %r=1.46 xhl=3.18 kva=112.0
~ wdg=1 bus=80464345001992.1.2.3 conn=delta kv=13.8
~ wdg=2 bus=80464345270925.1.2.3.0 conn=wye kv=0.38
new transformer.UNTRMT_5270926 phases=3 windings=2 %r=1.55 xhl=3.14 kva=75.0
~ wdg=1 bus=80464335001992.1.2.3 conn=delta kv=13.8
~ wdg=2 bus=80464335270926.1.2.3.0 conn=wye kv=0.38
new transformer.UNTRMT_5270927 phases=3 windings=2 %r=1.55 xhl=3.14 kva=75.0
~ wdg=1 bus=80464195001992.1.2.3 conn=delta kv=13.8
~ wdg=2 bus=80464195270927.1.2.3.0 conn=wye kv=0.38
new transformer.UNTRMT_5270928 phases=3 windings=2 %r=1.55 xhl=3.14 kva=75.0
~ wdg=1 bus=80464955001992.1.2.3 conn=delta kv=13.8
~ wdg=2 bus=80464955270928.1.2.3.0 conn=wye kv=0.38
new transformer.UNTRMT_5270929 phases=3 windings=2 %r=1.39 xhl=3.21 kva=150.0
~ wdg=1 bus=80464675001992.1.2.3 conn=delta kv=13.8
~ wdg=2 bus=80464675270929.1.2.3.0 conn=wye kv=0.38
new transformer.UNTRMT_5270930 phases=3 windings=2 %r=1.39 xhl=3.21 kva=150.0
~ wdg=1 bus=80465505001992.1.2.3 conn=delta kv=13.8
~ wdg=2 bus=80465505270930.1.2.3.0 conn=wye kv=0.38
new transformer.UNTRMT_5270931 phases=3 windings=2 %r=1.39 xhl=3.21 kva=150.0
~ wdg=1 bus=80465475001992.1.2.3 conn=delta kv=13.8
~ wdg=2 bus=80465475270931.1.2.3.0 conn=wye kv=0.38
new transformer.UNTRMT_5270932 phases=3 windings=2 %r=1.46 xhl=3.18 kva=112.0
~ wdg=1 bus=80465555001992.1.2.3 conn=delta kv=13.8
~ wdg=2 bus=80465555270932.1.2.3.0 conn=wye kv=0.38
new transformer.UNTRMT_5270933 phases=3 windings=2 %r=1.46 xhl=3.18 kva=112.0
~ wdg=1 bus=80463365001992.1.2.3 conn=delta kv=13.8
~ wdg=2 bus=80463365270933.1.2.3.0 conn=wye kv=0.38
new transformer.UNTRMT_5270934 phases=3 windings=2 %r=1.46 xhl=3.18 kva=112.0
~ wdg=1 bus=80463375001992.1.2.3 conn=delta kv=13.8
~ wdg=2 bus=80463375270934.1.2.3.0 conn=wye kv=0.38
new transformer.UNTRMT_5270935 phases=3 windings=2 %r=1.3 xhl=4.31 kva=225.0
~ wdg=1 bus=80465865001992.1.2.3 conn=delta kv=13.8
~ wdg=2 bus=80465865270935.1.2.3.0 conn=wye kv=0.38
new transformer.UNTRMT_5270936 phases=3 windings=2 %r=1.55 xhl=3.14 kva=75.0
~ wdg=1 bus=80459775001992.1.2.3 conn=delta kv=13.8
~ wdg=2 bus=80459775270936.1.2.3.0 conn=wye kv=0.38
new transformer.UNTRMT_5270937 phases=3 windings=2 %r=1.46 xhl=3.18 kva=112.0
~ wdg=1 bus=80459945001992.1.2.3 conn=delta kv=13.8
~ wdg=2 bus=80459945270937.1.2.3.0 conn=wye kv=0.38
new transformer.UNTRMT_5270938 phases=3 windings=2 %r=1.55 xhl=3.14 kva=75.0
~ wdg=1 bus=80462285001992.1.2.3 conn=delta kv=13.8
~ wdg=2 bus=80462285270938.1.2.3.0 conn=wye kv=0.38
new transformer.UNTRMT_5270939 phases=3 windings=2 %r=1.55 xhl=3.14 kva=75.0
~ wdg=1 bus=80461165001992.1.2.3 conn=delta kv=13.8
~ wdg=2 bus=80461165270939.1.2.3.0 conn=wye kv=0.38
new transformer.UNTRMT_5270940 phases=3 windings=2 %r=1.39 xhl=3.21 kva=150.0
~ wdg=1 bus=80463105001992.1.2.3 conn=delta kv=13.8
~ wdg=2 bus=80463105270940.1.2.3.0 conn=wye kv=0.38
new transformer.UNTRMT_5270941 phases=3 windings=2 %r=1.39 xhl=3.21 kva=150.0
~ wdg=1 bus=80463165001992.1.2.3 conn=delta kv=13.8
~ wdg=2 bus=80463165270941.1.2.3.0 conn=wye kv=0.38
new transformer.UNTRMT_5270942 phases=3 windings=2 %r=1.39 xhl=3.21 kva=150.0
~ wdg=1 bus=80466095002412.1.2.3 conn=delta kv=13.8
~ wdg=2 bus=80466095270942.1.2.3.0 conn=wye kv=0.38
new transformer.UNTRMT_5270944 phases=3 windings=2 %r=1.46 xhl=3.18 kva=112.0
~ wdg=1 bus=80460235001992.1.2.3 conn=delta kv=13.8
~ wdg=2 bus=80460235270944.1.2.3.0 conn=wye kv=0.38
new transformer.UNTRMT_5270945 phases=3 windings=2 %r=1.46 xhl=3.18 kva=112.0
~ wdg=1 bus=80460345001992.1.2.3 conn=delta kv=13.8
~ wdg=2 bus=80460345270945.1.2.3.0 conn=wye kv=0.38
new transformer.UNTRMT_5270946 phases=3 windings=2 %r=1.55 xhl=3.14 kva=75.0
~ wdg=1 bus=80460435001992.1.2.3 conn=delta kv=13.8
~ wdg=2 bus=80460435270946.1.2.3.0 conn=wye kv=0.38
new transformer.UNTRMT_5270947 phases=3 windings=2 %r=1.55 xhl=3.14 kva=75.0
~ wdg=1 bus=80460525001992.1.2.3 conn=delta kv=13.8
~ wdg=2 bus=80460525270947.1.2.3.0 conn=wye kv=0.38
new transformer.UNTRMT_5270948 phases=3 windings=2 %r=1.68 xhl=3.07 kva=45.0
~ wdg=1 bus=80460585001992.1.2.3 conn=delta kv=13.8
~ wdg=2 bus=80460585270948.1.2.3.0 conn=wye kv=0.38
new transformer.UNTRMT_5270949 phases=3 windings=2 %r=1.78 xhl=3.01 kva=30.0
~ wdg=1 bus=80460695001992.1.2.3 conn=delta kv=13.8
~ wdg=2 bus=80460695270949.1.2.3.0 conn=wye kv=0.38
new transformer.UNTRMT_5270950 phases=3 windings=2 %r=1.68 xhl=3.07 kva=45.0
~ wdg=1 bus=80460795002412.1.2.3 conn=delta kv=13.8
~ wdg=2 bus=80460795270950.1.2.3.0 conn=wye kv=0.38
new transformer.UNTRMT_5270951 phases=3 windings=2 %r=1.46 xhl=3.18 kva=112.0
~ wdg=1 bus=80461305001992.1.2.3 conn=delta kv=13.8
~ wdg=2 bus=80461305270951.1.2.3.0 conn=wye kv=0.38
new transformer.UNTRMT_5270952 phases=3 windings=2 %r=1.46 xhl=3.18 kva=112.0
~ wdg=1 bus=80461975001992.1.2.3 conn=delta kv=13.8
~ wdg=2 bus=80461975270952.1.2.3.0 conn=wye kv=0.38
new transformer.UNTRMT_5270953 phases=3 windings=2 %r=1.55 xhl=3.14 kva=75.0
~ wdg=1 bus=80460995002412.1.2.3 conn=delta kv=13.8
~ wdg=2 bus=80460995270953.1.2.3.0 conn=wye kv=0.38
new transformer.UNTRMT_5270954 phases=3 windings=2 %r=1.46 xhl=3.18 kva=112.0
~ wdg=1 bus=80452895001992.1.2.3 conn=delta kv=13.8
~ wdg=2 bus=80452895270954.1.2.3.0 conn=wye kv=0.38
new transformer.UNTRMT_5270955 phases=3 windings=2 %r=1.46 xhl=3.18 kva=112.0
~ wdg=1 bus=80452965001992.1.2.3 conn=delta kv=13.8
~ wdg=2 bus=80452965270955.1.2.3.0 conn=wye kv=0.38
new transformer.UNTRMT_5270956 phases=3 windings=2 %r=1.46 xhl=3.18 kva=112.0
~ wdg=1 bus=80463245001992.1.2.3 conn=delta kv=13.8
~ wdg=2 bus=80463245270956.1.2.3.0 conn=wye kv=0.38
new transformer.UNTRMT_5270957 phases=3 windings=2 %r=1.39 xhl=3.21 kva=150.0
~ wdg=1 bus=80465795001992.1.2.3 conn=delta kv=13.8
~ wdg=2 bus=80465795270957.1.2.3.0 conn=wye kv=0.38
new transformer.UNTRMT_5270958 phases=3 windings=2 %r=1.55 xhl=3.14 kva=75.0
~ wdg=1 bus=80464045007257.1.2.3 conn=delta kv=13.8
~ wdg=2 bus=80464045270958.1.2.3.0 conn=wye kv=0.38
new transformer.UNTRMT_5270960 phases=3 windings=2 %r=1.55 xhl=3.14 kva=75.0
~ wdg=1 bus=80466175002412.1.2.3 conn=delta kv=13.8
~ wdg=2 bus=80466175270960.1.2.3.0 conn=wye kv=0.38
new transformer.UNTRMT_5270961 phases=3 windings=2 %r=1.3 xhl=4.31 kva=112.0
~ wdg=1 bus=80466185002412.1.2.3 conn=delta kv=13.8
~ wdg=2 bus=80466185270961.1.2.3.0 conn=wye kv=0.38
new transformer.UNTRMT_5270962 phases=3 windings=2 %r=1.39 xhl=3.21 kva=150.0
~ wdg=1 bus=80458805002412.1.2.3 conn=delta kv=13.8
~ wdg=2 bus=80458805270962.1.2.3.0 conn=wye kv=0.38
new transformer.UNTRMT_5270965 phases=3 windings=2 %r=1.46 xhl=3.18 kva=112.0
~ wdg=1 bus=80453915001992.1.2.3 conn=delta kv=13.8
~ wdg=2 bus=80453915270965.1.2.3.0 conn=wye kv=0.38
new transformer.UNTRMT_5270966 phases=3 windings=2 %r=1.39 xhl=3.21 kva=150.0
~ wdg=1 bus=80454025001992.1.2.3 conn=delta kv=13.8
~ wdg=2 bus=80454025270966.1.2.3.0 conn=wye kv=0.38
new transformer.UNTRMT_5270976 phases=3 windings=2 %r=1.3 xhl=4.31 kva=225.0
~ wdg=1 bus=80470315007257.1.2.3 conn=delta kv=13.8
~ wdg=2 bus=80470315270976.1.2.3.0 conn=wye kv=0.38
new transformer.UNTRMT_5270977 phases=3 windings=2 %r=0.95 xhl=5.92 kva=112.0
~ wdg=1 bus=80470395001993.1.2.3 conn=delta kv=13.8
~ wdg=2 bus=80470395270977.1.2.3.0 conn=wye kv=0.38
new transformer.UNTRMT_5270977_2 phases=3 windings=2 %r=0.95 xhl=5.92 kva=112.0
~ wdg=1 bus=80470395001993.1.2.3 conn=delta kv=13.8
~ wdg=2 bus=80470395270977_2.1.2.3.0 conn=wye kv=0.38
new transformer.UNTRMT_5270977_3 phases=3 windings=2 %r=1.15 xhl=5.89 kva=112.0
~ wdg=1 bus=80470395001993.1.2.3 conn=delta kv=13.8
~ wdg=2 bus=80470395270977_3.1.2.3.0 conn=wye kv=0.38
new transformer.UNTRMT_5270981 phases=3 windings=2 %r=1.46 xhl=3.18 kva=112.0
~ wdg=1 bus=80470195001993.1.2.3 conn=delta kv=13.8
~ wdg=2 bus=80470195270981.1.2.3.0 conn=wye kv=0.38
new transformer.UNTRMT_5270984 phases=3 windings=2 %r=1.25 xhl=4.32 kva=800.0
~ wdg=1 bus=80472425001997.1.2.3 conn=delta kv=13.8
~ wdg=2 bus=80472425270984.1.2.3.0 conn=wye kv=0.38
new transformer.UNTRMT_5270984_2 phases=3 windings=2 %r=1.15 xhl=5.89 kva=800.0
~ wdg=1 bus=80472425001997.1.2.3 conn=delta kv=13.8
~ wdg=2 bus=80472425270984_2.1.2.3.0 conn=wye kv=0.38
new transformer.UNTRMT_5271015 phases=3 windings=2 %r=1.46 xhl=3.18 kva=112.0
~ wdg=1 bus=80471645007257.1.2.3 conn=delta kv=13.8
~ wdg=2 bus=80471645271015.1.2.3.0 conn=wye kv=0.38
new transformer.UNTRMT_5271016 phases=3 windings=2 %r=1.46 xhl=3.18 kva=112.0
~ wdg=1 bus=80472025001993.1.2.3 conn=delta kv=13.8
~ wdg=2 bus=80472025271016.1.2.3.0 conn=wye kv=0.38
new transformer.UNTRMT_5271017 phases=3 windings=2 %r=1.68 xhl=3.07 kva=45.0
~ wdg=1 bus=80471975001993.1.2.3 conn=delta kv=13.8
~ wdg=2 bus=80471975271017.1.2.3.0 conn=wye kv=0.38
new transformer.UNTRMT_5271018 phases=3 windings=2 %r=1.46 xhl=3.18 kva=112.0
~ wdg=1 bus=80469165001993.1.2.3 conn=delta kv=13.8
~ wdg=2 bus=80469165271018.1.2.3.0 conn=wye kv=0.38
new transformer.UNTRMT_5271019 phases=3 windings=2 %r=1.39 xhl=3.21 kva=150.0
~ wdg=1 bus=80470325001993.1.2.3 conn=delta kv=13.8
~ wdg=2 bus=80470325271019.1.2.3.0 conn=wye kv=0.38
new transformer.UNTRMT_5271022 phases=3 windings=2 %r=1.55 xhl=3.14 kva=75.0
~ wdg=1 bus=80470005007257.1.2.3 conn=delta kv=13.8
~ wdg=2 bus=80470005271022.1.2.3.0 conn=wye kv=0.38
new transformer.UNTRMT_5271023 phases=3 windings=2 %r=1.39 xhl=3.21 kva=150.0
~ wdg=1 bus=80470035007257.1.2.3 conn=delta kv=13.8
~ wdg=2 bus=80470035271023.1.2.3.0 conn=wye kv=0.38
new transformer.UNTRMT_5271024 phases=3 windings=2 %r=1.46 xhl=3.18 kva=112.0
~ wdg=1 bus=80469885007257.1.2.3 conn=delta kv=13.8
~ wdg=2 bus=80469885271024.1.2.3.0 conn=wye kv=0.38
new transformer.UNTRMT_5271025 phases=3 windings=2 %r=1.39 xhl=3.21 kva=150.0
~ wdg=1 bus=80470485007257.1.2.3 conn=delta kv=13.8
~ wdg=2 bus=80470485271025.1.2.3.0 conn=wye kv=0.38
new transformer.UNTRMT_5271027 phases=3 windings=2 %r=1.78 xhl=3.01 kva=30.0
~ wdg=1 bus=80470225001993.1.2.3 conn=delta kv=13.8
~ wdg=2 bus=80470225271027.1.2.3.0 conn=wye kv=0.38
new transformer.UNTRMT_5271028 phases=3 windings=2 %r=1.46 xhl=3.18 kva=112.0
~ wdg=1 bus=80468075001993.1.2.3 conn=delta kv=13.8
~ wdg=2 bus=80468075271028.1.2.3.0 conn=wye kv=0.38
new transformer.UNTRMT_5271029 phases=3 windings=2 %r=1.46 xhl=3.18 kva=112.0
~ wdg=1 bus=80468345001993.1.2.3 conn=delta kv=13.8
~ wdg=2 bus=80468345271029.1.2.3.0 conn=wye kv=0.38
new transformer.UNTRMT_5271030 phases=3 windings=2 %r=1.55 xhl=3.14 kva=75.0
~ wdg=1 bus=80468515001993.1.2.3 conn=delta kv=13.8
~ wdg=2 bus=80468515271030.1.2.3.0 conn=wye kv=0.38
new transformer.UNTRMT_5271031 phases=3 windings=2 %r=1.78 xhl=3.01 kva=30.0
~ wdg=1 bus=80468595001993.1.2.3 conn=delta kv=13.8
~ wdg=2 bus=80468595271031.1.2.3.0 conn=wye kv=0.38
new transformer.UNTRMT_5271051 phases=3 windings=2 %r=1.39 xhl=3.21 kva=150.0
~ wdg=1 bus=80472335001993.1.2.3 conn=delta kv=13.8
~ wdg=2 bus=80472335271051.1.2.3.0 conn=wye kv=0.38
new transformer.UNTRMT_5271052 phases=3 windings=2 %r=1.39 xhl=3.21 kva=150.0
~ wdg=1 bus=80472355001993.1.2.3 conn=delta kv=13.8
~ wdg=2 bus=80472355271052.1.2.3.0 conn=wye kv=0.38
new transformer.UNTRMT_5271053 phases=3 windings=2 %r=1.46 xhl=3.18 kva=112.0
~ wdg=1 bus=80472285001993.1.2.3 conn=delta kv=13.8
~ wdg=2 bus=80472285271053.1.2.3.0 conn=wye kv=0.38
new transformer.UNTRMT_5271058 phases=3 windings=2 %r=1.15 xhl=5.89 kva=112.0
~ wdg=1 bus=80470545007257.1.2.3 conn=delta kv=13.8
~ wdg=2 bus=80470545271058.1.2.3.0 conn=wye kv=0.38
new transformer.UNTRMT_5271059 phases=3 windings=2 %r=1.25 xhl=4.32 kva=300.0
~ wdg=1 bus=80470655007257.1.2.3 conn=delta kv=13.8
~ wdg=2 bus=80470655271059.1.2.3.0 conn=wye kv=0.38
new transformer.UNTRMT_5271060 phases=3 windings=2 %r=1.07 xhl=5.9 kva=112.0
~ wdg=1 bus=80470935007257.1.2.3 conn=delta kv=13.8
~ wdg=2 bus=80470935271060.1.2.3.0 conn=wye kv=0.38
new transformer.UNTRMT_5271061 phases=3 windings=2 %r=1.46 xhl=3.18 kva=112.0
~ wdg=1 bus=80469875007257.1.2.3 conn=delta kv=13.8
~ wdg=2 bus=80469875271061.1.2.3.0 conn=wye kv=0.38
new transformer.UNTRMT_5271062 phases=3 windings=2 %r=1.02 xhl=5.91 kva=112.0
~ wdg=1 bus=98042805001993.1.2.3 conn=delta kv=13.8
~ wdg=2 bus=98042805271062.1.2.3.0 conn=wye kv=0.38
new transformer.UNTRMT_5271062_2 phases=3 windings=2 %r=1.02 xhl=5.91 kva=112.0
~ wdg=1 bus=98042805001993.1.2.3 conn=delta kv=13.8
~ wdg=2 bus=98042805271062_2.1.2.3.0 conn=wye kv=0.38
new transformer.UNTRMT_5271063 phases=3 windings=2 %r=1.02 xhl=5.91 kva=1000.0
~ wdg=1 bus=98381835001993.1.2.3 conn=delta kv=13.8
~ wdg=2 bus=98381835271063.1.2.3.0 conn=wye kv=0.38
new transformer.UNTRMT_5271078 phases=3 windings=2 %r=1.55 xhl=3.14 kva=75.0
~ wdg=1 bus=80474145001994.1.2.3 conn=delta kv=13.8
~ wdg=2 bus=80474145271078.1.2.3.0 conn=wye kv=0.38
new transformer.UNTRMT_5271082 phases=3 windings=2 %r=1.39 xhl=3.21 kva=112.0
~ wdg=1 bus=80472685002410.1.2.3 conn=delta kv=13.8
~ wdg=2 bus=80472685271082.1.2.3.0 conn=wye kv=0.38
new transformer.UNTRMT_5271083 phases=3 windings=2 %r=1.55 xhl=3.14 kva=75.0
~ wdg=1 bus=80472695002410.1.2.3 conn=delta kv=13.8
~ wdg=2 bus=80472695271083.1.2.3.0 conn=wye kv=0.38
new transformer.UNTRMT_5271084 phases=3 windings=2 %r=1.39 xhl=3.21 kva=150.0
~ wdg=1 bus=80472725002410.1.2.3 conn=delta kv=13.8
~ wdg=2 bus=80472725271084.1.2.3.0 conn=wye kv=0.38
new transformer.UNTRMT_5271093 phases=3 windings=2 %r=1.3 xhl=4.31 kva=75.0
~ wdg=1 bus=80473485001994.1.2.3 conn=delta kv=13.8
~ wdg=2 bus=80473485271093.1.2.3.0 conn=wye kv=0.38
new transformer.UNTRMT_5271097 phases=3 windings=2 %r=1.15 xhl=5.89 kva=112.0
~ wdg=1 bus=80477845001991.1.2.3 conn=delta kv=13.8
~ wdg=2 bus=80477845271097.1.2.3.0 conn=wye kv=0.38
new transformer.UNTRMT_5271098 phases=3 windings=2 %r=1.46 xhl=3.18 kva=112.0
~ wdg=1 bus=80476675001991.1.2.3 conn=delta kv=13.8
~ wdg=2 bus=80476675271098.1.2.3.0 conn=wye kv=0.38
new transformer.UNTRMT_5271103 phases=3 windings=2 %r=1.25 xhl=4.32 kva=300.0
~ wdg=1 bus=80475675001991.1.2.3 conn=delta kv=13.8
~ wdg=2 bus=80475675271103.1.2.3.0 conn=wye kv=0.38
new transformer.UNTRMT_5271104 phases=3 windings=2 %r=1.25 xhl=4.32 kva=300.0
...